*SPEF "IEEE 1481-1998"
*DESIGN "dvsd_adder_12bit"
*DATE "Fri Aug 27 08:31:17 2021"
*VENDOR "AUC CSCE Department"
*PROGRAM "SPEF Extractor"
*VERSION "1.0"
*DESIGN_FLOW "PIN_CAP NONE"
*DIVIDER /
*DELIMITER :
*BUS_DELIMITER []
*T_UNIT 1.00000 NS
*C_UNIT 1.00000 PF
*R_UNIT 1.00000 OHM
*L_UNIT 1.00000 HENRY


*NAME_MAP
*0 A[0]
*1 A[10]
*2 A[11]
*3 A[1]
*4 A[2]
*5 A[3]
*6 A[4]
*7 A[5]
*8 A[6]
*9 A[7]
*10 A[8]
*11 A[9]
*12 B[0]
*13 B[10]
*14 B[11]
*15 B[1]
*16 B[2]
*17 B[3]
*18 B[4]
*19 B[5]
*20 B[6]
*21 B[7]
*22 B[8]
*23 B[9]
*24 CE
*25 Cin
*26 Cout
*27 S[0]
*28 S[10]
*29 S[11]
*30 S[1]
*31 S[2]
*32 S[3]
*33 S[4]
*34 S[5]
*35 S[6]
*36 S[7]
*37 S[8]
*38 S[9]
*39 _000_
*40 _001_
*41 _002_
*42 _003_
*43 _004_
*44 _005_
*45 _006_
*46 _007_
*47 _008_
*48 _009_
*49 _010_
*50 _011_
*51 _012_
*52 _013_
*53 _014_
*54 _015_
*55 _016_
*56 _017_
*57 _018_
*58 _019_
*59 _020_
*60 _021_
*61 _022_
*62 _023_
*63 _024_
*64 _025_
*65 _026_
*66 _027_
*67 _028_
*68 _029_
*69 _030_
*70 _031_
*71 _032_
*72 _033_
*73 _034_
*74 _035_
*75 _036_
*76 _037_
*77 _038_
*78 _039_
*79 _040_
*80 _041_
*81 _042_
*82 _043_
*83 _044_
*84 _045_
*85 _046_
*86 _047_
*87 _048_
*88 _049_
*89 _050_
*90 _051_
*91 _052_
*92 _053_
*93 _054_
*94 _055_
*95 _056_
*96 _057_
*97 net1
*98 net10
*99 net11
*100 net12
*101 net13
*102 net14
*103 net15
*104 net16
*105 net17
*106 net18
*107 net19
*108 net2
*109 net20
*110 net21
*111 net22
*112 net23
*113 net24
*114 net25
*115 net26
*116 net27
*117 net28
*118 net29
*119 net3
*120 net30
*121 net31
*122 net32
*123 net33
*124 net34
*125 net35
*126 net36
*127 net37
*128 net38
*129 net39
*130 net4
*131 net5
*132 net6
*133 net7
*134 net8
*135 net9

*D_NET *0 0.00080253986746
*CONN
*P A[0] I
*I input1:A I
*CAP
0 *0:1 0.00022243310784000002
1 *0:2 8.223124824000001e-05
2 *0:3 0.00044753498242
3 input1:A 5.034052896000001e-05
4 *0:5 0
*RES
0 *0:1 *0:2 2.4285714285714284
1 *0:2 *0:3 0.8214285714285714
2 *0:3 *0:4 5.008928571428571
3 input1:A *0:5 0.4107142857142857
4 *0:5 *0:4 0
5 input1:A input1:A 0
*END

*D_NET *1 0.00070973609922
*CONN
*P A[10] I
*I input2:A I
*CAP
5 *1:1 0.00065939557026
6 *1:3 5.034052896000001e-05
7 input2:A 0
*RES
6 *1:1 *1:2 7.437499999999999
7 *1:3 input2:A 0.4107142857142857
8 *1:3 *1:2 0
9 input2:A input2:A 0
*END

*D_NET *2 0.00189722888038
*CONN
*P A[11] I
*I input3:A I
*CAP
8 *2:1 0.00011806061236
9 *2:3 0.00010993955108000003
10 *2:4 6.353766696000002e-05
11 *2:6 0.00028423114272
12 *2:7 0.0013214599072599999
13 input3:A 0
*RES
10 *2:1 *2:2 1.232142857142857
11 *2:3 *2:2 0.6071428571428571
12 *2:3 *2:4 0.4107142857142857
13 *2:4 *2:5 0.6071428571428571
14 *2:6 input3:A 2.875
15 *2:7 *2:1 15.026785714285712
16 *2:6 *2:7 0
17 input3:A input3:A 0
*END

*D_NET *3 0.0006335064463999999
*CONN
*P A[1] I
*I input4:A I
*CAP
14 *3:1 7.67789537e-05
15 *3:3 0.0005567274927
16 input4:A 0
*RES
18 *3:1 *3:2 0.7589285714285713
19 *3:3 *3:4 0.9729000000000001
20 *3:1 *3:3 0
21 input4:A input4:A 0
22 input4:A *3:2 0
*END

*D_NET *4 0.0005688326128
*CONN
*P A[2] I
*I input5:A I
*CAP
17 *4:1 0.0003596407917
18 *4:3 0.00020919182110000001
19 input5:A 0
*RES
23 *4:1 *4:2 0.6125666666666667
24 *4:3 *4:4 2.276785714285714
25 *4:3 *4:2 0
26 input5:A input5:A 0
27 input5:A *4:4 0
*END

*D_NET *5 0.0009480792605400001
*CONN
*P A[3] I
*I input6:A I
*CAP
20 *5:1 5.034052896000001e-05
21 *5:2 0.0008977387315800001
22 input6:A 0
*RES
28 *5:1 input6:A 0.4107142857142857
29 *5:2 *5:3 10.169642857142856
30 input6:A input6:A 0
31 *5:1 *5:2 0
*END

*D_NET *6 0.0013673478886600003
*CONN
*P A[4] I
*I input7:A I
*CAP
23 *6:1 0.0010831167459400002
24 input7:A 0.00028423114272
25 *6:3 0
*RES
32 *6:1 *6:2 12.294642857142856
33 input7:A *6:3 2.875
34 *6:3 *6:2 0
35 input7:A input7:A 0
*END

*D_NET *7 0.0019214784048200003
*CONN
*P A[5] I
*I input8:A I
*CAP
26 input8:A 6.898398368e-05
27 *7:2 0.00075201237024
28 *7:3 0.0008447735846200001
29 *7:5 8.223124824000001e-05
30 *7:6 6.353766696000002e-05
31 *7:7 0.00010993955108000003
*RES
36 input8:A *7:1 0.6071428571428571
37 *7:2 *7:1 7.803571428571428
38 *7:3 *7:4 9.5625
39 *7:5 *7:4 0.8214285714285714
40 *7:6 *7:5 0.6071428571428571
41 *7:7 *7:6 0.4107142857142857
42 *7:7 *7:8 0.6071428571428571
43 input8:A input8:A 0
44 *7:2 *7:3 0
*END

*D_NET *8 0.00071295416684
*CONN
*P A[6] I
*I input9:A I
*CAP
32 *8:1 0.00015622667414000004
33 *8:3 0.0005567274927
34 *8:2 0
35 input9:A 0
*RES
45 *8:1 *8:2 1.669642857142857
46 *8:3 *8:4 0.9729000000000001
47 *8:2 *8:3 0
48 input9:A input9:A 0
49 input9:A *8:1 0
*END

*D_NET *9 0.00095104682814
*CONN
*P A[7] I
*I input10:A I
*CAP
36 *9:1 0.00065939557026
37 *9:3 4.640188412000001e-05
38 input10:A 0.00024524937376
39 *9:4 0
*RES
50 *9:1 *9:2 7.437499999999999
51 *9:3 *9:2 0.4107142857142857
52 input10:A *9:4 2.464285714285714
53 *9:4 *9:3 0
54 input10:A input10:A 0
*END

*D_NET *10 0.0018130990902599999
*CONN
*P A[8] I
*I input11:A I
*CAP
40 *10:1 0.0012949773337799998
41 input11:A 0.0005181217564799999
42 *10:3 0
*RES
55 *10:1 *10:2 14.723214285714283
56 input11:A *10:3 5.339285714285714
57 *10:3 *10:1 0
58 input11:A input11:A 0
*END

*D_NET *11 0.00113238406224
*CONN
*P A[9] I
*I input12:A I
*CAP
43 *11:1 2.3813806740000006e-05
44 *11:3 0.0011085702555
45 input12:A 0
46 *11:2 0
*RES
59 *11:1 *11:2 0.15178571428571427
60 *11:3 *11:4 1.9818333333333336
61 input12:A input12:A 0
62 input12:A *11:1 0
63 *11:2 *11:3 0
*END

*D_NET *12 0.0009480792605400001
*CONN
*P B[0] I
*I input13:A I
*CAP
47 *12:1 5.034052896000001e-05
48 *12:2 0.0008977387315800001
49 input13:A 0
*RES
64 *12:1 input13:A 0.4107142857142857
65 *12:2 *12:3 10.169642857142856
66 input13:A input13:A 0
67 *12:1 *12:2 0
*END

*D_NET *13 0.00187101339924
*CONN
*P B[10] I
*I input14:A I
*CAP
50 *13:1 0.0009509008947
51 *13:3 0.0007918084376600001
52 input14:A 0.00012830406688
53 *13:4 0
54 *13:5 0
*RES
68 *13:1 *13:2 1.6935666666666669
69 *13:3 *13:4 8.95535714285714
70 input14:A *13:5 1.232142857142857
71 *13:4 *13:2 0
72 *13:5 *13:3 0
73 input14:A input14:A 0
*END

*D_NET *14 0.00157812407328
*CONN
*P B[11] I
*I input15:A I
*CAP
55 input15:A 5.034052896000001e-05
56 *14:2 0.00018270924762000003
57 *14:4 0.0013450742967
58 *14:1 0
*RES
74 input15:A *14:1 0.4107142857142857
75 *14:2 *14:3 1.9732142857142856
76 *14:4 *14:5 2.4142333333333332
77 input15:A input15:A 0
78 *14:1 *14:3 0
79 *14:2 *14:4 0
*END

*D_NET *15 0.00071295416684
*CONN
*P B[1] I
*I input16:A I
*CAP
59 *15:1 0.0005567274927
60 *15:3 0.00015622667414000004
61 input16:A 0
*RES
80 *15:1 *15:2 0.9729000000000001
81 *15:3 *15:4 1.669642857142857
82 *15:3 *15:2 0
83 input16:A input16:A 0
84 input16:A *15:4 0
*END

*D_NET *16 0.00073943674032
*CONN
*P B[2] I
*I input17:A I
*CAP
62 *16:1 0.00018270924762000003
63 *16:3 0.0005567274927
64 input17:A 0
*RES
85 *16:1 *16:2 1.9732142857142856
86 *16:3 *16:4 0.9729000000000001
87 *16:1 *16:3 0
88 input17:A input17:A 0
89 input17:A *16:2 0
*END

*D_NET *17 0.0004364197454
*CONN
*P B[3] I
*I input18:A I
*CAP
65 *17:1 0.0003596407917
66 *17:3 7.67789537e-05
67 input18:A 0
*RES
90 *17:1 *17:2 0.6125666666666667
91 *17:3 *17:4 0.7589285714285713
92 *17:3 *17:2 0
93 input18:A input18:A 0
94 input18:A *17:4 0
*END

*D_NET *18 0.0014938240259800002
*CONN
*P B[4] I
*I input19:A I
*CAP
68 *18:1 0.0005960852944
69 *18:2 0.0008977387315800001
70 input19:A 0
*RES
95 *18:1 input19:A 6.160714285714286
96 *18:2 *18:3 10.169642857142856
97 *18:1 *18:3 0
98 input19:A input19:A 0
*END

*D_NET *19 0.0017669275257000002
*CONN
*P B[5] I
*I input20:A I
*CAP
71 *19:1 8.223124824000001e-05
72 *19:2 0.0006991194304800001
73 input20:A 0.00016728583584
74 *19:5 0.00081829101114
75 *19:4 0
*RES
99 *19:1 *19:2 0.8214285714285714
100 *19:2 *19:3 7.892857142857142
101 input20:A *19:4 1.6428571428571428
102 *19:5 *19:1 9.25892857142857
103 *19:4 *19:5 0
104 input20:A input20:A 0
*END

*D_NET *20 0.000966071215
*CONN
*P B[6] I
*I input21:A I
*CAP
76 *20:1 0.0003596407917
77 *20:3 0.0006064304233
78 input21:A 0
*RES
105 *20:1 *20:2 0.6125666666666667
106 *20:3 *20:4 6.830357142857142
107 *20:3 *20:2 0
108 input21:A input21:A 0
109 input21:A *20:4 0
*END

*D_NET *21 0.00070973609922
*CONN
*P B[7] I
*I input22:A I
*CAP
79 *21:1 0.00065939557026
80 *21:3 5.034052896000001e-05
81 input22:A 0
*RES
110 *21:1 *21:2 7.437499999999999
111 *21:3 input22:A 0.4107142857142857
112 *21:3 *21:2 0
113 input22:A input22:A 0
*END

*D_NET *22 0.0017414034381000002
*CONN
*P B[8] I
*I input23:A I
*CAP
82 input23:A 4.017137184e-05
83 *22:2 0.00082997590816
84 *22:3 0.0008712561581000002
*RES
114 input23:A *22:1 0.30357142857142855
115 *22:2 *22:1 8.625
116 *22:3 *22:4 9.866071428571429
117 input23:A input23:A 0
118 *22:2 *22:3 0
*END

*D_NET *23 0.00141078220518
*CONN
*P B[9] I
*I input24:A I
*CAP
85 input24:A 8.932229792e-05
86 *23:2 0.0013214599072599999
87 *23:1 0
*RES
119 input24:A *23:1 0.8214285714285714
120 *23:2 *23:3 15.026785714285712
121 *23:1 *23:3 0
122 input24:A input24:A 0
*END

*D_NET *24 0.0016137376979
*CONN
*P CE I
*I input25:A I
*CAP
88 input25:A 0.00055710352544
89 *24:2 0.00105663417246
90 *24:1 0
*RES
123 input25:A *24:1 5.75
124 *24:2 *24:3 11.991071428571427
125 input25:A input25:A 0
126 *24:1 *24:2 0
*END

*D_NET *25 0.00363719125268
*CONN
*P Cin I
*I input26:A I
*CAP
91 input26:A 4.017137184e-05
92 *25:1 0.000985902984
93 *25:3 0.0009507038785400001
94 *25:5 0.0016604130182999999
95 *25:2 0
*RES
127 input26:A *25:1 0.30357142857142855
128 *25:1 *25:2 10.267857142857142
129 *25:3 *25:4 10.776785714285714
130 *25:5 *25:6 2.9907666666666666
131 input26:A input26:A 0
132 *25:2 *25:4 0
133 *25:3 *25:5 0
*END

*D_NET *26 0.00083918060158
*CONN
*P Cout O
*I output27:X O
*CAP
96 *26:1 0.00063291299678
97 *26:3 0.0002062676048
98 output27:X 0
*RES
134 *26:1 *26:2 7.133928571428571
135 *26:3 output27:X 2.0535714285714284
136 *26:3 *26:2 0
137 output27:X output27:X 0
*END

*D_NET *27 0.00068325352574
*CONN
*P S[0] O
*I output28:X O
*CAP
99 *27:1 0.00063291299678
100 *27:3 5.034052896000001e-05
101 output28:X 0
*RES
138 *27:1 *27:2 7.133928571428571
139 *27:3 output28:X 0.4107142857142857
140 *27:3 *27:2 0
141 output28:X output28:X 0
*END

*D_NET *28 0.00058054129944
*CONN
*P S[10] O
*I output29:X O
*CAP
102 *28:1 0.0005567274927
103 *28:3 2.3813806740000006e-05
104 output29:X 0
*RES
142 *28:1 *28:2 0.9729000000000001
143 *28:3 *28:4 0.15178571428571427
144 *28:3 *28:2 0
145 output29:X output29:X 0
146 output29:X *28:4 0
*END

*D_NET *29 0.0008847843744400001
*CONN
*P S[11] O
*I output30:X O
*CAP
105 *29:1 0.00028863954154000006
106 *29:3 0.0005961448329
107 output30:X 0
108 *29:2 0
*RES
147 *29:1 *29:2 3.1874999999999996
148 *29:3 *29:4 1.0449666666666666
149 output30:X output30:X 0
150 output30:X *29:1 0
151 *29:2 *29:3 0
*END

*D_NET *30 0.0006898874009000001
*CONN
*P S[1] O
*I output31:X O
*CAP
109 *30:1 0.00016946796088000002
110 *30:2 4.640188412000001e-05
111 *30:3 0.00047401755590000005
112 output31:X 0
*RES
152 *30:1 *30:2 1.8214285714285714
153 *30:2 *30:3 0.4107142857142857
154 *30:3 *30:4 5.3125
155 output31:X output31:X 0
156 output31:X *30:4 0
*END

*D_NET *31 0.00054112395924
*CONN
*P S[2] O
*I output32:X O
*CAP
113 *31:1 0.0005173101524999999
114 *31:3 2.3813806740000006e-05
115 *31:4 0
116 output32:X 0
*RES
157 *31:1 *31:2 0.9008333333333334
158 *31:3 *31:4 0.15178571428571427
159 *31:4 *31:2 0
160 output32:X output32:X 0
161 output32:X *31:3 0
*END

*D_NET *32 0.00253062557608
*CONN
*P S[3] O
*I output33:X O
*CAP
117 *32:1 0.0012662396163
118 *32:3 0.00012830406688
119 *32:4 0.0011360818929000002
120 *32:5 0
121 output33:X 0
*RES
162 *32:1 *32:2 2.2701000000000002
163 *32:3 output33:X 1.232142857142857
164 *32:4 *32:5 12.901785714285712
165 *32:5 *32:1 0
166 *32:3 *32:4 0
167 output33:X output33:X 0
*END

*D_NET *33 0.0012849318031800002
*CONN
*P S[4] O
*I output34:X O
*CAP
122 *33:1 0.00044015821855999997
123 *33:2 0.0008447735846200001
124 output34:X 0
*RES
168 *33:1 output34:X 4.517857142857142
169 *33:2 *33:3 9.5625
170 output34:X output34:X 0
171 *33:1 *33:2 0
*END

*D_NET *34 0.0011898043488200003
*CONN
*P S[5] O
*I output35:X O
*CAP
125 *34:1 8.932229792e-05
126 *34:2 0.0008447735846200001
127 *34:4 8.223124824000001e-05
128 *34:5 6.353766696000002e-05
129 *34:6 0.00010993955108000003
130 output35:X 0
*RES
172 *34:1 output35:X 0.8214285714285714
173 *34:2 *34:3 9.5625
174 *34:4 *34:3 0.8214285714285714
175 *34:5 *34:4 0.6071428571428571
176 *34:6 *34:5 0.4107142857142857
177 *34:6 *34:7 0.6071428571428571
178 output35:X output35:X 0
179 *34:1 *34:2 0
*END

*D_NET *35 0.00068325352574
*CONN
*P S[6] O
*I output36:X O
*CAP
131 *35:1 0.00063291299678
132 *35:3 5.034052896000001e-05
133 output36:X 0
*RES
180 *35:1 *35:2 7.133928571428571
181 *35:3 output36:X 0.4107142857142857
182 *35:3 *35:2 0
183 output36:X output36:X 0
*END

*D_NET *36 0.00042287193864
*CONN
*P S[7] O
*I output37:X O
*CAP
134 *36:1 0.00039905813189999997
135 *36:3 2.3813806740000006e-05
136 output37:X 0
*RES
184 *36:1 *36:2 0.6846333333333334
185 *36:3 *36:4 0.15178571428571427
186 *36:3 *36:2 0
187 output37:X output37:X 0
188 output37:X *36:4 0
*END

*D_NET *37 0.0015747559289399997
*CONN
*P S[8] O
*I output38:X O
*CAP
137 *37:1 0.0005181217564799999
138 *37:2 0.00105663417246
139 output38:X 0
*RES
189 *37:1 output38:X 5.339285714285714
190 *37:2 *37:3 11.991071428571427
191 output38:X output38:X 0
192 *37:1 *37:2 0
*END

*D_NET *38 0.0009377495214000001
*CONN
*P S[9] O
*I output39:X O
*CAP
140 *38:1 0.00034160468850000003
141 *38:3 0.0005961448329
142 output39:X 0
*RES
193 *38:1 *38:2 3.7946428571428568
194 *38:3 *38:4 1.0449666666666666
195 *38:1 *38:3 0
196 output39:X output39:X 0
197 output39:X *38:2 0
*END

*D_NET *39 0.0027292507075999998
*CONN
*I _128_:D I
*I _100_:Y O
*CAP
143 *39:1 5.034052896000001e-05
144 *39:2 0.00175842236968
145 *39:4 0.0005972748972799999
146 _128_:D 0.00032321291168
147 _100_:Y 0
148 *39:6 0
*RES
198 *39:1 _100_:Y 0.4107142857142857
199 *39:2 *39:3 20.035714285714285
200 *39:4 *39:5 0.30357142857142855
201 _128_:D *39:5 3.2857142857142856
202 *39:4 *39:6 5.75
203 _100_:Y _100_:Y 0
204 *39:1 *39:2 0
205 *39:6 *39:3 0
206 _128_:D _128_:D 0
*END

*D_NET *40 0.0026711455190000003
*CONN
*I _116_:D I
*I _102_:X O
*CAP
149 *40:1 0.00125525347356
150 *40:3 0.0013757206736000002
151 _116_:D 4.017137184e-05
152 _102_:X 0
153 *40:4 0
*RES
207 *40:1 *40:2 14.267857142857142
208 *40:3 *40:4 14.375
209 _116_:D *40:3 0.30357142857142855
210 _102_:X _102_:X 0
211 _102_:X *40:1 0
212 *40:4 *40:2 0
213 _116_:D _116_:D 0
*END

*D_NET *41 0.00554435150748
*CONN
*I _126_:D I
*I _114_:Y O
*CAP
154 *41:1 0.0017655383632
155 *41:3 0.00019595053436
156 _114_:Y 0.00145368421152
157 *41:6 0.0021291783984
158 *41:2 0
159 *41:5 0
160 _126_:D 0
*RES
214 *41:1 *41:2 18.482142857142854
215 *41:3 *41:4 2.1249999999999996
216 _114_:Y *41:5 15.19642857142857
217 *41:6 *41:7 24.28571428571428
218 *41:2 *41:7 0
219 *41:1 *41:3 0
220 *41:5 *41:4 0
221 _114_:Y _114_:Y 0
222 _126_:D _126_:D 0
223 _126_:D *41:6 0
*END

*D_NET *42 0.00562091044184
*CONN
*I _127_:D I
*I _115_:Y O
*CAP
161 *42:1 0.00014298538739999998
162 *42:3 0.00026474025824
163 *42:5 4.017137184e-05
164 *42:7 0.0005871057401599999
165 *42:9 0.0024675523776
166 *42:10 0.00097718645202
167 *42:12 0.00024370280489999994
168 *42:14 4.43020701e-05
169 *42:16 0.0006858781437400002
170 *42:6 0.00016728583584
171 _127_:D 0
172 _115_:Y 0
173 *42:11 0
174 *42:18 0
*RES
224 *42:1 *42:2 1.5178571428571426
225 *42:3 *42:4 2.669642857142857
226 *42:5 *42:6 0.30357142857142855
227 *42:7 *42:5 5.339285714285714
228 *42:7 *42:8 0.6071428571428571
229 *42:9 *42:8 24.84821428571428
230 *42:9 *42:4 0.9107142857142857
231 *42:10 *42:11 11.080357142857142
232 *42:12 *42:13 0.036033333333333334
233 *42:12 *42:14 0.31960000000000005
234 *42:14 *42:15 0.036033333333333334
235 *42:16 *42:17 7.741071428571428
236 *42:6 *42:18 1.6428571428571428
237 *42:3 *42:1 0
238 _127_:D _127_:D 0
239 _127_:D *42:2 0
240 _115_:Y _115_:Y 0
241 _115_:Y *42:10 0
242 *42:11 *42:13 0
243 *42:16 *42:15 0
244 *42:18 *42:17 0
*END

*D_NET *43 0.0027987746831600003
*CONN
*I _117_:D I
*I _103_:Y O
*CAP
175 *43:1 0.0018908352370800002
176 _103_:Y 0.00090793944608
177 _117_:D 0
178 *43:3 0
*RES
245 *43:1 *43:2 21.553571428571427
246 _103_:Y *43:3 9.446428571428571
247 _117_:D _117_:D 0
248 _117_:D *43:1 0
249 *43:3 *43:2 0
250 _103_:Y _103_:Y 0
*END

*D_NET *44 0.00086788944884
*CONN
*I _118_:D I
*I _106_:X O
*CAP
179 _106_:X 8.932229792e-05
180 *44:2 0.00077856715092
181 *44:1 0
182 _118_:D 0
*RES
251 _106_:X *44:1 0.8214285714285714
252 *44:2 *44:3 8.803571428571427
253 _106_:X _106_:X 0
254 *44:1 *44:2 0
255 _118_:D _118_:D 0
256 _118_:D *44:3 0
*END

*D_NET *45 0.0015415945341200003
*CONN
*I _119_:D I
*I _107_:Y O
*CAP
183 *45:1 0.0006726368570000002
184 *45:3 0.00086895767712
185 _119_:D 0
186 _107_:Y 0
*RES
257 *45:1 *45:2 7.5892857142857135
258 *45:3 _107_:Y 9.035714285714285
259 _119_:D _119_:D 0
260 _119_:D *45:1 0
261 *45:3 *45:2 0
262 _107_:Y _107_:Y 0
*END

*D_NET *46 0.0016879368570400003
*CONN
*I _120_:D I
*I _108_:Y O
*CAP
187 *46:1 0.00038132854871999994
188 _108_:Y 0.00082997590816
189 *46:4 6.254671872000001e-05
190 *46:6 1.2206189760000002e-05
191 *46:8 8.223124824000001e-05
192 *46:9 2.3813806740000006e-05
193 *46:11 0.00022168010099999995
194 *46:13 2.3813806740000006e-05
195 *46:15 5.034052896000001e-05
196 *46:3 0
197 *46:7 0
198 *46:10 0
199 *46:14 0
200 _120_:D 0
*RES
263 *46:1 *46:2 4.249999999999999
264 _108_:Y *46:3 8.625
265 *46:4 *46:5 0.008928571428571428
266 *46:4 *46:6 0.4107142857142857
267 *46:6 *46:7 0.008928571428571428
268 *46:8 *46:9 0.8214285714285714
269 *46:9 *46:10 0.15178571428571427
270 *46:11 *46:12 0.3603333333333333
271 *46:13 *46:14 0.15178571428571427
272 *46:15 *46:5 0.4107142857142857
273 *46:15 *46:1 0
274 *46:3 *46:2 0
275 _108_:Y _108_:Y 0
276 *46:7 *46:8 0
277 *46:10 *46:11 0
278 *46:14 *46:12 0
279 _120_:D _120_:D 0
280 _120_:D *46:13 0
*END

*D_NET *47 0.0032029194978
*CONN
*I _121_:D I
*I _109_:Y O
*CAP
201 *47:1 0.0005960852944
202 *47:2 0.00204973067796
203 _121_:D 0.00055710352544
204 _109_:Y 0
205 *47:4 0
*RES
281 *47:1 _109_:Y 6.160714285714286
282 *47:2 *47:3 23.374999999999996
283 _121_:D *47:4 5.75
284 _109_:Y _109_:Y 0
285 *47:1 *47:2 0
286 *47:4 *47:3 0
287 _121_:D _121_:D 0
*END

*D_NET *48 0.00042721653012
*CONN
*I _122_:D I
*I _110_:Y O
*CAP
206 *48:1 0.00014298538739999998
207 *48:3 0.00028423114272
208 _110_:Y 0
209 _122_:D 0
*RES
288 *48:1 *48:2 1.5178571428571426
289 *48:3 _122_:D 2.875
290 *48:3 *48:1 0
291 _110_:Y _110_:Y 0
292 _110_:Y *48:2 0
293 _122_:D _122_:D 0
*END

*D_NET *49 0.00685160189264
*CONN
*I _123_:D I
*I _111_:Y O
*CAP
210 *49:1 0.0004791399875199999
211 *49:2 9.779659552000001e-05
212 *49:3 0.0023892466665599997
213 *49:4 0.0037181328072000003
214 *49:6 0.00016728583584
215 _123_:D 0
216 _111_:Y 0
*RES
294 *49:1 _123_:D 4.928571428571428
295 *49:2 *49:1 0.9107142857142857
296 *49:3 *49:2 25.053571428571423
297 *49:4 *49:5 42.5
298 *49:6 _111_:Y 1.6428571428571428
299 _123_:D _123_:D 0
300 *49:3 *49:4 0
301 *49:6 *49:5 0
302 _111_:Y _111_:Y 0
*END

*D_NET *50 0.0018115477192
*CONN
*I _124_:D I
*I _112_:Y O
*CAP
217 *50:1 0.00055710352544
218 *50:2 0.0005402239896
219 *50:4 0.00071422020416
220 _112_:Y 0
221 *50:5 0
222 _124_:D 0
*RES
303 *50:1 _112_:Y 5.75
304 *50:2 *50:3 6.07142857142857
305 *50:4 *50:5 6.982142857142857
306 *50:4 _124_:D 0.30357142857142855
307 _112_:Y _112_:Y 0
308 *50:1 *50:2 0
309 *50:5 *50:3 0
310 _124_:D _124_:D 0
*END

*D_NET *51 0.00125838204116
*CONN
*I _125_:D I
*I _113_:Y O
*CAP
223 _125_:D 0.00045964910303999994
224 *51:1 4.017137184e-05
225 *51:2 0.00061557617888
226 *51:4 0.00014298538739999998
227 _113_:Y 0
228 *51:3 0
*RES
311 _125_:D *51:1 4.723214285714286
312 *51:1 *51:2 0.30357142857142855
313 *51:2 *51:3 6.366071428571428
314 *51:4 *51:5 1.5178571428571426
315 _113_:Y _113_:Y 0
316 _113_:Y *51:5 0
317 _125_:D _125_:D 0
318 *51:3 *51:4 0
*END

*D_NET *52 0.0038639657188
*CONN
*I _100_:A1 I
*I _060_:B1 I
*I _058_:Y O
*CAP
229 _060_:B1 4.017137184e-05
230 *52:1 5.034052896000001e-05
231 *52:3 0.0011228406061600002
232 *52:5 0.0005181217564799999
233 *52:7 0.00063625666624
234 *52:8 4.017137184e-05
235 *52:9 0.00040117644959999997
236 *52:10 6.898398368e-05
237 _058_:Y 0.000985902984
238 *52:2 0
239 _100_:A1 0
240 *52:11 0
*RES
319 _060_:B1 *52:1 0.30357142857142855
320 *52:1 *52:2 0.4107142857142857
321 *52:3 *52:4 12.749999999999998
322 *52:5 *52:6 5.339285714285714
323 *52:7 *52:6 0.30357142857142855
324 *52:7 *52:8 6.160714285714286
325 *52:8 *52:9 0.30357142857142855
326 *52:9 *52:10 4.107142857142857
327 *52:10 _100_:A1 0.6071428571428571
328 _058_:Y *52:11 10.267857142857142
329 _060_:B1 _060_:B1 0
330 *52:2 *52:4 0
331 *52:5 *52:3 0
332 _100_:A1 _100_:A1 0
333 _058_:Y _058_:Y 0
334 *52:11 *52:12 0
*END

*D_NET *53 0.005472446608
*CONN
*I _100_:A2 I
*I _060_:B2 I
*I _059_:Y O
*CAP
241 *53:1 6.353766696000002e-05
242 *53:3 4.017137184e-05
243 *53:4 0.00024524937376
244 *53:6 0.0011228406061600002
245 *53:8 0.0003621946806399999
246 *53:10 0.0002854207456
247 *53:11 4.017137184e-05
248 *53:12 0.00040117644959999997
249 *53:13 4.017137184e-05
250 *53:14 0.0003621946806399999
251 _100_:A2 6.898398368e-05
252 *53:16 4.017137184e-05
253 *53:17 0.0015706295183999998
254 *53:19 0.00011650281392
255 _059_:Y 0.00071303060128
256 _060_:B2 0
257 *53:5 0
258 *53:18 0
259 *53:21 0
*RES
335 *53:1 *53:2 0.6071428571428571
336 *53:3 *53:4 0.30357142857142855
337 *53:4 *53:5 2.464285714285714
338 *53:6 *53:7 12.749999999999998
339 *53:8 *53:9 3.6964285714285707
340 *53:10 *53:9 0.30357142857142855
341 *53:10 *53:11 2.464285714285714
342 *53:11 *53:12 0.30357142857142855
343 *53:12 *53:13 4.107142857142857
344 *53:13 *53:14 0.30357142857142855
345 *53:14 *53:15 3.6964285714285707
346 _100_:A2 *53:15 0.6071428571428571
347 *53:16 *53:17 0.30357142857142855
348 *53:17 *53:18 16.428571428571427
349 *53:19 *53:20 1.2142857142857142
350 _059_:Y *53:16 7.3928571428571415
351 _059_:Y _059_:Y 0
352 _060_:B2 _060_:B2 0
353 _060_:B2 *53:1 0
354 *53:3 *53:2 0
355 *53:5 *53:7 0
356 *53:8 *53:6 0
357 _100_:A2 _100_:A2 0
358 *53:18 *53:20 0
359 *53:21 *53:19 0
*END

*D_NET *54 0.00272903058708
*CONN
*I _115_:B1 I
*I _115_:A1_N I
*I _100_:B1 I
*I _060_:X O
*CAP
260 *54:1 5.034052896000001e-05
261 *54:2 0.0012022883266000002
262 _060_:X 0.00075201237024
263 _115_:B1 0.00024524937376
264 *54:5 0.0004791399875199999
265 *54:4 0
266 _115_:A1_N 0
267 _100_:B1 0
*RES
360 *54:1 _115_:B1 0.4107142857142857
361 *54:2 *54:3 13.660714285714285
362 _060_:X *54:4 7.803571428571428
363 _115_:B1 _115_:A1_N 2.464285714285714
364 *54:5 _100_:B1 4.928571428571428
365 _115_:B1 _115_:B1 0
366 *54:1 *54:2 0
367 *54:4 *54:3 0
368 _060_:X _060_:X 0
369 _115_:A1_N _115_:A1_N 0
370 _100_:B1 _100_:B1 0
371 *54:5 *54:6 0
*END

*D_NET *55 0.00216552254688
*CONN
*I _099_:A1 I
*I _063_:B1 I
*I _061_:Y O
*CAP
268 *55:1 0.00040117644959999997
269 _099_:A1 4.017137184e-05
270 *55:3 5.034052896000001e-05
271 _063_:B1 4.017137184e-05
272 *55:5 0.00012949366976
273 *55:7 0.00046077626916000004
274 *55:8 0.00104339288572
275 *55:2 0
276 _061_:Y 0
277 *55:6 0
*RES
372 *55:1 *55:2 4.107142857142857
373 _099_:A1 *55:1 0.30357142857142855
374 *55:3 _061_:Y 0.4107142857142857
375 _063_:B1 *55:4 0.30357142857142855
376 *55:5 *55:4 0.8214285714285714
377 *55:5 *55:6 0.30357142857142855
378 *55:7 *55:8 5.160714285714286
379 *55:8 *55:9 11.839285714285714
380 *55:2 *55:9 0
381 _099_:A1 _099_:A1 0
382 _061_:Y _061_:Y 0
383 *55:3 *55:8 0
384 _063_:B1 _063_:B1 0
385 *55:6 *55:7 0
*END

*D_NET *56 0.00515390808256
*CONN
*I _099_:A2 I
*I _063_:B2 I
*I _062_:Y O
*CAP
278 _099_:A2 0.0005181217564799999
279 *56:2 0.00152007920836
280 _062_:Y 0.0016485930563200002
281 *56:3 0.0014671140614000001
282 *56:1 0
283 _063_:B2 0
284 *56:4 0
*RES
386 _099_:A2 *56:1 5.339285714285714
387 *56:2 *56:3 17.303571428571427
388 _062_:Y *56:4 17.25
389 *56:3 *56:5 16.69642857142857
390 *56:1 *56:5 0
391 _099_:A2 _099_:A2 0
392 _063_:B2 _063_:B2 0
393 _063_:B2 *56:3 0
394 *56:4 *56:2 0
395 _062_:Y _062_:Y 0
*END

*D_NET *57 0.00474192519252
*CONN
*I _114_:B1 I
*I _114_:A1_N I
*I _099_:B1 I
*I _063_:X O
*CAP
285 *57:1 0.00016557346478
286 *57:3 4.640188412000001e-05
287 *57:4 0.00128563054314
288 *57:5 5.034052896000001e-05
289 _114_:B1 8.034274368e-05
290 _114_:A1_N 0.00024524937376
291 *57:6 0.00270110081824
292 _099_:B1 0.00016728583584
293 *57:8 0
294 _063_:X 0
295 *57:7 0
*RES
396 *57:1 *57:2 1.7767857142857142
397 *57:3 *57:1 0.4107142857142857
398 *57:4 *57:3 14.616071428571429
399 *57:5 _063_:X 0.4107142857142857
400 _114_:B1 *57:6 0.30357142857142855
401 _114_:A1_N _114_:B1 2.464285714285714
402 _114_:B1 _114_:B1 0.30357142857142855
403 *57:6 *57:7 28.33928571428571
404 _099_:B1 *57:8 1.6428571428571428
405 *57:8 *57:2 0
406 *57:5 *57:4 0
407 _063_:X _063_:X 0
408 *57:7 *57:9 0
409 _099_:B1 _099_:B1 0
410 _114_:B1 _114_:B1 0
411 _114_:A1_N _114_:A1_N 0
*END

*D_NET *58 0.005220757861600001
*CONN
*I _098_:A1 I
*I _066_:B1 I
*I _064_:Y O
*CAP
296 _066_:B1 5.034052896000001e-05
297 *58:2 0.00016946796088000002
298 *58:4 0.00012830406688
299 *58:5 0.0008580148713600001
300 *58:7 0.00172655659424
301 *58:9 0.00228807383928
302 _098_:A1 0
303 *58:1 0
304 *58:8 0
305 _064_:Y 0
306 *58:11 0
*RES
412 _066_:B1 *58:1 0.4107142857142857
413 *58:2 *58:3 1.8214285714285714
414 *58:4 _064_:Y 1.232142857142857
415 *58:5 *58:6 9.714285714285714
416 *58:7 *58:8 18.07142857142857
417 *58:9 *58:10 26.107142857142854
418 _098_:A1 _098_:A1 0
419 _098_:A1 *58:10 0
420 _066_:B1 _066_:B1 0
421 *58:1 *58:3 0
422 *58:7 *58:2 0
423 *58:8 *58:9 0
424 _064_:Y _064_:Y 0
425 *58:4 *58:5 0
426 *58:11 *58:6 0
*END

*D_NET *59 0.00697687642952
*CONN
*I _098_:A2 I
*I _066_:B2 I
*I _065_:Y O
*CAP
307 _066_:B2 0.00024524937376
308 *59:2 0.0004078111222
309 *59:4 0.00012830406688
310 *59:6 0.0017054572227200003
311 *59:8 0.0016096112873599999
312 *59:9 9.002024044000002e-05
313 *59:11 0.00067404883232
314 _065_:Y 0.00211637428384
315 *59:1 0
316 *59:5 0
317 _098_:A2 0
318 *59:13 0
319 *59:12 0
*RES
427 _066_:B2 *59:1 2.464285714285714
428 *59:2 *59:3 4.553571428571428
429 *59:4 *59:5 1.232142857142857
430 *59:6 *59:7 19.428571428571427
431 *59:8 _098_:A2 16.83928571428571
432 *59:9 *59:10 0.9107142857142857
433 *59:11 *59:12 6.982142857142857
434 _065_:Y *59:13 22.178571428571427
435 _065_:Y _065_:Y 0
436 _066_:B2 _066_:B2 0
437 *59:1 *59:2 0
438 *59:5 *59:3 0
439 *59:4 *59:6 0
440 *59:8 *59:7 0
441 _098_:A2 _098_:A2 0
442 *59:13 *59:9 0
443 *59:11 *59:10 0
444 *59:12 *59:14 0
*END

*D_NET *60 0.00752991474752
*CONN
*I _113_:B1 I
*I _113_:A1_N I
*I _098_:B1 I
*I _066_:X O
*CAP
320 _113_:B1 0.00024524937376
321 *60:1 0.00014298538739999998
322 *60:3 0.0009481108179199999
323 *60:6 0.0023502648976000003
324 *60:7 0.0002062676048
325 *60:8 0.00010326152718000001
326 *60:10 0.0010100269049999999
327 *60:12 0.0022748325525400004
328 *60:13 0.00024891568132000004
329 _113_:A1_N 0
330 _098_:B1 0
331 *60:4 0
332 _066_:X 0
333 *60:9 0
*RES
445 _113_:B1 _113_:A1_N 2.464285714285714
446 *60:1 *60:2 1.5178571428571426
447 *60:3 *60:4 9.446428571428571
448 *60:3 *60:5 0.30357142857142855
449 *60:6 *60:5 24.642857142857142
450 *60:7 _066_:X 2.0535714285714284
451 *60:8 *60:9 1.0624999999999998
452 *60:10 *60:11 1.8016666666666667
453 *60:12 *60:13 25.955357142857142
454 *60:13 *60:14 2.7321428571428568
455 _113_:A1_N _113_:A1_N 0
456 _113_:A1_N *60:14 0
457 _113_:B1 _113_:B1 0
458 _098_:B1 _098_:B1 0
459 _098_:B1 *60:1 0
460 *60:4 *60:2 0
461 *60:6 *60:13 0
462 _066_:X _066_:X 0
463 *60:7 *60:8 0
464 *60:9 *60:11 0
465 *60:12 *60:10 0
*END

*D_NET *61 0.00402221154868
*CONN
*I _097_:A1 I
*I _069_:B1 I
*I _067_:Y O
*CAP
334 *61:1 0.00016728583584
335 *61:2 0.0014141489144400001
336 _097_:A1 0.00040117644959999997
337 _067_:Y 0.0020396003488
338 *61:4 0
339 _069_:B1 0
*RES
466 *61:1 _067_:Y 1.6428571428571428
467 *61:2 *61:3 16.08928571428571
468 _097_:A1 *61:4 4.107142857142857
469 _067_:Y _069_:B1 20.94642857142857
470 _067_:Y _067_:Y 0.30357142857142855
471 _067_:Y _067_:Y 0
472 *61:1 *61:3 0
473 *61:4 *61:2 0
474 _097_:A1 _097_:A1 0
475 _069_:B1 _069_:B1 0
*END

*D_NET *62 0.005733124060919999
*CONN
*I _097_:A2 I
*I _069_:B2 I
*I _068_:Y O
*CAP
340 *62:1 0.00227230135968
341 *62:3 0.00020176461784
342 *62:4 0.00012830406688
343 *62:5 0.0004078111222
344 *62:6 4.640188412000001e-05
345 *62:7 0.00032836340175999997
346 *62:9 4.017137184e-05
347 *62:10 0.0002062676048
348 *62:12 0.0005181217564799999
349 *62:13 0.00075208457744
350 *62:14 0.00083153229788
351 *62:2 0
352 _069_:B2 0
353 _097_:A2 0
354 *62:11 0
355 _068_:Y 0
*RES
476 *62:1 *62:2 23.82142857142857
477 *62:3 *62:2 48.79999999999999
478 *62:3 _069_:B2 1.232142857142857
479 *62:4 _097_:A2 1.232142857142857
480 *62:5 *62:6 4.553571428571428
481 *62:6 *62:7 0.4107142857142857
482 *62:7 *62:8 3.642857142857143
483 *62:9 *62:10 0.30357142857142855
484 *62:10 *62:11 2.0535714285714284
485 *62:12 _068_:Y 5.339285714285714
486 *62:13 *62:5 8.499999999999998
487 *62:14 *62:15 9.410714285714285
488 *62:1 *62:15 0
489 *62:2 *62:2 0
490 *62:3 *62:3 0
491 _069_:B2 _069_:B2 0
492 _097_:A2 _097_:A2 0
493 *62:4 *62:5 0
494 *62:9 *62:8 0
495 *62:11 *62:14 0
496 _068_:Y _068_:Y 0
497 *62:12 *62:13 0
*END

*D_NET *63 0.006127753155480001
*CONN
*I _112_:B1 I
*I _112_:A1_N I
*I _097_:B1 I
*I _069_:X O
*CAP
356 *63:1 0.00032321291168
357 *63:2 5.034052896000001e-05
358 *63:3 0.0027317143256000006
359 _112_:B1 0.0002062676048
360 *63:5 4.017137184e-05
361 *63:6 5.034052896000001e-05
362 *63:7 9.002024044000002e-05
363 *63:9 0.0002062676048
364 *63:10 4.017137184e-05
365 *63:11 0.0023892466665599997
366 _069_:X 0
367 _112_:A1_N 0
368 _097_:B1 0
369 *63:12 0
*RES
498 *63:1 _069_:X 3.2857142857142856
499 *63:2 _112_:A1_N 0.4107142857142857
500 *63:3 *63:4 0.4107142857142857
501 _112_:B1 *63:5 2.0535714285714284
502 *63:5 *63:2 0.30357142857142855
503 *63:6 _097_:B1 0.4107142857142857
504 *63:7 *63:8 0.9107142857142857